# File generated by Flopy version 3.3.2 on 02/05/2021 at 13:57:28.
BEGIN options
  BUDGET  FILEOUT  ejercicio1.bud
  HEAD  FILEOUT  ejercicio1.hds
END options

BEGIN period  1
  SAVE  HEAD  ALL
  SAVE  BUDGET  ALL
  PRINT  HEAD  LAST
END period  1

