# File generated by Flopy version 3.3.2 on 02/04/2021 at 18:17:10.
BEGIN options
  COMPLEXITY  simple
END options

