# File generated by Flopy version 3.3.2 on 02/05/2021 at 13:57:26.
BEGIN options
  COMPLEXITY  simple
END options

